data/IEEETestCases/4Bus-YY-Bal/4BusYYbal_Curr_Elem.Txt

CIRCUIT ELEMENT CURRENTS

(Currents into element from indicated bus)

Power Delivery Elements

  Bus     Phase    Magnitude, A     Angle      (Real)   +j  (Imag)

ELEMENT = "Vsource.SOURCE"
SOURCEBUS     1            347.9 /_  145.1 =    -285.28 +j    199.12
SOURCEBUS     2           323.71 /_   25.8 =     291.33 +j    141.11
SOURCEBUS     3           336.83 /_  -95.0 =    -29.265 +j   -335.55
------------
SOURCEBUS     0            347.9 /_  -34.9 =     285.28 +j   -199.12
SOURCEBUS     0           323.71 /_ -154.2 =    -291.33 +j   -141.11
SOURCEBUS     0           336.83 /_   85.0 =     29.265 +j    335.55

ELEMENT = "Line.LINE1"
SOURCEBUS     1            347.9 /_  -34.9 =     285.28 +j   -199.12
SOURCEBUS     2           323.71 /_ -154.2 =    -291.33 +j   -141.11
SOURCEBUS     3           336.83 /_   85.0 =     29.265 +j    335.55
SOURCEBUS Resid           23.678 /_  168.6 =     -23.213 +j    4.6717
------------
N2            1           347.91 /_  145.1 =    -285.28 +j    199.14
N2            2           323.72 /_   25.8 =     291.35 +j     141.1
N2            3           336.84 /_  -95.0 =    -29.281 +j   -335.56
N2        Resid           23.679 /_  -11.4 =      23.214 +j   -4.6714

ELEMENT = "Transformer.T1"
N2            1           347.91 /_  -34.9 =     285.28 +j   -199.14
N2            2           323.72 /_ -154.2 =    -291.35 +j    -141.1
N2            3           336.84 /_   85.0 =     29.281 +j    335.56
N2            0           23.679 /_  168.6 =    -23.214 +j    4.6714
N2        Resid      4.8408E-007 /_  -56.1 =   2.6975E-007 +j -4.0196E-007
------------
N3            1           1042.9 /_  145.1 =    -855.16 +j    596.93
N3            2           970.37 /_   25.8 =     873.35 +j    422.95
N3            3           1009.7 /_  -95.0 =    -87.772 +j   -1005.9
N3            0           70.981 /_  -11.4 =     69.586 +j   -14.003
N3        Resid      3.4467E-006 /_  -34.9 =   2.8262E-006 +j -1.9729E-006

ELEMENT = "Line.LINE2"
N3            1           1042.9 /_  -34.9 =     855.16 +j   -596.93
N3            2           970.37 /_ -154.2 =    -873.35 +j   -422.95
N3            3           1009.7 /_   85.0 =     87.772 +j    1005.9
N3        Resid           70.981 /_  168.6 =     -69.586 +j    14.003
------------
N4            1           1042.9 /_  145.1 =    -855.17 +j    596.94
N4            2           970.38 /_   25.8 =     873.36 +j    422.94
N4            3           1009.7 /_  -95.0 =    -87.778 +j   -1005.9
N4        Resid           70.981 /_  -11.4 =      69.587 +j   -14.003

= = = = = = = = = = = = = = = = = = =  = = = = = = = = = = =  = =

Power Conversion Elements

  Bus     Phase    Magnitude, A     Angle      (Real)   +j  (Imag)

ELEMENT = "Load.LOAD1"
N4            1           1042.9 /_  -34.9 =     855.18 +j   -596.93
N4            2           970.36 /_ -154.2 =    -873.34 +j   -422.93
N4            3           1009.7 /_   85.0 =     87.777 +j    1005.9
N4            0           70.999 /_  168.7 =     -69.61 +j     13.97

