data/IEEETestCases/4Bus-YY-Bal/4BusYYbal_Power_elem_kVA.txt

CIRCUIT ELEMENT POWER FLOW

(Power Flow into element from indicated Bus)

Power Delivery Elements

  Bus     Phase     kW     +j   kvar         kVA         PF

ELEMENT = "Vsource.SOURCE"
SOURCEBUS     1     -2053.9 +j  -1433.5     2504.6       0.8200
SOURCEBUS     2     -1928.5 +j  -1308.4     2330.5       0.8275
SOURCEBUS     3     -1986.8 +j  -1390.3     2424.9       0.8193
   TERMINAL TOTAL . -5969.2 +j  -4132.2     7259.9       0.8222
SOURCEBUS     0         0.0 +j      0.0        0.0       1.0000
SOURCEBUS     0         0.0 +j      0.0        0.0       1.0000
SOURCEBUS     0         0.0 +j      0.0        0.0       1.0000
   TERMINAL TOTAL .     0.0 +j      0.0        0.0       1.0000

ELEMENT = "Line.LINE1"
SOURCEBUS     1      2053.9 +j   1433.5     2504.6       0.8200
SOURCEBUS     2      1928.5 +j   1308.4     2330.5       0.8275
SOURCEBUS     3      1986.8 +j   1390.3     2424.9       0.8193
   TERMINAL TOTAL .  5969.2 +j   4132.2     7259.9       0.8222
N2            1     -2035.7 +j  -1403.1     2472.4       0.8234
N2            2     -1920.2 +j  -1286.2     2311.2       0.8308
N2            3     -1973.9 +j  -1362.4     2398.5       0.8230
   TERMINAL TOTAL . -5929.9 +j  -4051.7     7181.9       0.8257

ELEMENT = "Transformer.T1"
N2            1      2035.7 +j   1403.1     2472.4       0.8234
N2            2      1920.2 +j   1286.2     2311.2       0.8308
N2            3      1973.9 +j   1362.4     2398.5       0.8230
N2            0         0.0 +j      0.0        0.0       1.0000
   TERMINAL TOTAL .  5929.9 +j   4051.7     7181.9       0.8257
N3            1     -2004.3 +j  -1214.8     2343.7       0.8552
N3            2     -1893.1 +j  -1123.2     2201.2       0.8600
N3            3     -1944.5 +j  -1186.0     2277.7       0.8537
N3            0         0.0 +j      0.0        0.0       1.0000
   TERMINAL TOTAL . -5841.9 +j  -3524.1     6822.5       0.8563

ELEMENT = "Line.LINE2"
N3            1      2004.3 +j   1214.8     2343.7       0.8552
N3            2      1893.1 +j   1123.2     2201.2       0.8600
N3            3      1944.5 +j   1186.0     2277.7       0.8537
   TERMINAL TOTAL .  5841.9 +j   3524.1     6822.5       0.8563
N4            1     -1800.0 +j   -871.8     2000.0       0.9000
N4            2     -1800.1 +j   -871.8     2000.1       0.9000
N4            3     -1799.9 +j   -871.8     1999.9       0.9000
   TERMINAL TOTAL . -5400.0 +j  -2615.3     6000.0       0.9000

= = = = = = = = = = = = = = = = = = =  = = = = = = = = = = =  = =

Power Conversion Elements

  Bus     Phase     kW   +j  kvar         kVA         PF

ELEMENT = "Load.LOAD1"
N4            1    1800.0 +j  871.7     2000.0       0.9000
N4            2    1800.0 +j  871.8     2000.0       0.9000
N4            3    1800.0 +j  871.8     2000.0       0.9000
N4            0       0.0 +j    0.0        0.0       1.0000
  TERMINAL TOTAL  .  5400.0 +j   2615.3     6000.0       0.9000


Total Circuit Losses =  569.2 +j 1516.9
