data/IEEETestCases/4Bus-YY-Bal/4BusYYbal_VLN_Node.Txt

LINE-GROUND and LINE-LINE VOLTAGES BY BUS & NODE

Bus       Node    VLN (kV)   Angle      pu     Base kV    Node-Node   VLL (kV)  Angle      pu

SOURCEBUS 1       7.1994 /_    0.0   0.99997    12.470        1-2      12.47 /_   30.0   0.99997
   -      2       7.1994 /_ -120.0   0.99997    12.470        2-3      12.47 /_  -90.0   0.99997
   -      3       7.1994 /_  120.0   0.99997    12.470        3-1      12.47 /_  150.0   0.99997
N2 ...... 1       7.1063 /_   -0.3   0.98705    12.470        1-2     12.338 /_   29.7   0.98938
   -      2       7.1395 /_ -120.3   0.99166    12.470        2-3     12.351 /_  -90.4   0.99048
   -      3       7.1206 /_  119.6   0.98903    12.470        3-1     12.319 /_  149.6   0.98788
N3 ...... 1       2.2473 /_   -3.7    0.9357     4.160        1-2     3.9065 /_   26.6   0.93906
   -      2       2.2684 /_ -123.5   0.94448     4.160        2-3     3.9206 /_  -93.6   0.94246
   -      3       2.2558 /_  116.4   0.93922     4.160        3-1     3.9016 /_  146.3   0.93788
N4 ...... 1       1.9177 /_   -9.1   0.79845     4.160        1-2     3.4333 /_   22.5   0.82532
   -      2       2.0611 /_ -128.3   0.85817     4.160        2-3     3.5151 /_  -99.4   0.84497
   -      3       1.9807 /_  110.9   0.82469     4.160        3-1     3.3751 /_  140.4   0.81132
